<?xml version="1.0" encoding="UTF-8"?>

<!-- generated on 2021-10-09 22:39:43 by Eclipse SUMO netedit Version 1.10.0
<configuration xmlns:xsi="http://www.w3.org/2001/XMLSchema-instance" xsi:noNamespaceSchemaLocation="http://sumo.dlr.de/xsd/netconvertConfiguration.xsd">

    <input>
        <sumo-net-file value="lane_change_3.net.xml"/>
    </input>

    <output>
        <output-file value="lane_change_3.net.xml"/>
    </output>

    <processing>
        <geometry.min-radius.fix.railways value="false"/>
        <geometry.max-grade.fix value="false"/>
        <offset.disable-normalization value="true"/>
        <lefthand value="false"/>
    </processing>

    <junctions>
        <no-turnarounds value="true"/>
        <junctions.corner-detail value="5"/>
        <junctions.limit-turn-speed value="5.5"/>
        <rectangular-lane-cut value="false"/>
    </junctions>

    <pedestrian>
        <walkingareas value="false"/>
    </pedestrian>

    <netedit>
        <route-files value="lane_change_3.rou.xml"/>
    </netedit>

    <report>
        <aggregate-warnings value="5"/>
    </report>

</configuration>
-->

<net version="1.9" junctionCornerDetail="5" limitTurnSpeed="5.50" xmlns:xsi="http://www.w3.org/2001/XMLSchema-instance" xsi:noNamespaceSchemaLocation="http://sumo.dlr.de/xsd/net_file.xsd">

    <location netOffset="0.00,0.00" convBoundary="-1100.00,-400.00,200.00,-200.00" origBoundary="-10000000000.00,-10000000000.00,10000000000.00,10000000000.00" projParameter="!"/>

    <edge id=":gneJ1_0" function="internal">
        <lane id=":gneJ1_0_0" index="0" speed="12.33" length="8.76" shape="-814.76,-211.76 -812.67,-210.18 -811.21,-209.00 -809.62,-208.26 -807.13,-208.00"/>
    </edge>
    <edge id=":gneJ1_1" function="internal">
        <lane id=":gneJ1_1_0" index="0" speed="13.89" length="8.77" shape="-815.90,-208.00 -807.13,-208.00"/>
        <lane id=":gneJ1_1_1" index="1" speed="13.89" length="8.77" shape="-815.90,-204.80 -807.13,-204.80"/>
        <lane id=":gneJ1_1_2" index="2" speed="13.89" length="8.77" shape="-815.90,-201.60 -807.13,-201.60"/>
    </edge>
    <edge id=":gneJ2_0" function="internal">
        <lane id=":gneJ2_0_0" index="0" speed="12.33" length="8.76" shape="-92.87,-208.00 -90.38,-208.26 -88.79,-209.00 -87.33,-210.18 -85.24,-211.76"/>
    </edge>
    <edge id=":gneJ2_1" function="internal">
        <lane id=":gneJ2_1_0" index="0" speed="13.89" length="8.77" shape="-92.87,-208.00 -84.10,-208.00"/>
        <lane id=":gneJ2_1_1" index="1" speed="13.89" length="8.77" shape="-92.87,-204.80 -84.10,-204.80"/>
        <lane id=":gneJ2_1_2" index="2" speed="13.89" length="8.77" shape="-92.87,-201.60 -84.10,-201.60"/>
    </edge>

    <edge id="gneE0" from="gneJ0" to="gneJ1" priority="-1">
        <lane id="gneE0_0" index="0" speed="13.89" length="284.10" shape="-1100.00,-208.00 -815.90,-208.00"/>
        <lane id="gneE0_1" index="1" speed="13.89" length="284.10" shape="-1100.00,-204.80 -815.90,-204.80"/>
        <lane id="gneE0_2" index="2" speed="13.89" length="284.10" shape="-1100.00,-201.60 -815.90,-201.60"/>
    </edge>
    <edge id="gneE1" from="gneJ1" to="gneJ2" priority="-1">
        <lane id="gneE1_0" index="0" speed="13.89" length="714.26" shape="-807.13,-208.00 -92.87,-208.00"/>
        <lane id="gneE1_1" index="1" speed="13.89" length="714.26" shape="-807.13,-204.80 -92.87,-204.80"/>
        <lane id="gneE1_2" index="2" speed="13.89" length="714.26" shape="-807.13,-201.60 -92.87,-201.60"/>
    </edge>
    <edge id="gneE2" from="gneJ2" to="gneJ3" priority="-1">
        <lane id="gneE2_0" index="0" speed="13.89" length="284.10" shape="-84.10,-208.00 200.00,-208.00"/>
        <lane id="gneE2_1" index="1" speed="13.89" length="284.10" shape="-84.10,-204.80 200.00,-204.80"/>
        <lane id="gneE2_2" index="2" speed="13.89" length="284.10" shape="-84.10,-201.60 200.00,-201.60"/>
    </edge>
    <edge id="gneE3" from="gneJ4" to="gneJ1" priority="-1">
        <lane id="gneE3_0" index="0" speed="13.89" length="341.75" shape="-1099.11,-401.33 -814.76,-211.76"/>
    </edge>
    <edge id="gneE4" from="gneJ2" to="gneJ5" priority="-1">
        <lane id="gneE4_0" index="0" speed="13.89" length="341.75" shape="-85.24,-211.76 199.11,-401.33"/>
    </edge>

    <junction id="gneJ0" type="dead_end" x="-1100.00" y="-200.00" incLanes="" intLanes="" shape="-1100.00,-200.00 -1100.00,-209.60"/>
    <junction id="gneJ1" type="priority" x="-800.00" y="-200.00" incLanes="gneE3_0 gneE0_0 gneE0_1 gneE0_2" intLanes=":gneJ1_0_0 :gneJ1_1_0 :gneJ1_1_1 :gneJ1_1_2" shape="-807.13,-200.00 -807.13,-209.60 -809.86,-210.04 -810.74,-210.56 -811.56,-211.25 -812.54,-212.10 -813.87,-213.09 -815.65,-210.43 -815.90,-209.60 -815.90,-200.00">
        <request index="0" response="1110" foes="1110" cont="0"/>
        <request index="1" response="0000" foes="0001" cont="0"/>
        <request index="2" response="0000" foes="0001" cont="0"/>
        <request index="3" response="0000" foes="0001" cont="0"/>
    </junction>
    <junction id="gneJ2" type="priority" x="-100.00" y="-200.00" incLanes="gneE1_0 gneE1_1 gneE1_2" intLanes=":gneJ2_0_0 :gneJ2_1_0 :gneJ2_1_1 :gneJ2_1_2" shape="-84.10,-200.00 -84.10,-209.60 -84.35,-210.43 -86.13,-213.09 -88.44,-211.25 -89.26,-210.56 -90.14,-210.04 -91.27,-209.71 -92.87,-209.60 -92.87,-200.00">
        <request index="0" response="0000" foes="0000" cont="0"/>
        <request index="1" response="0000" foes="0000" cont="0"/>
        <request index="2" response="0000" foes="0000" cont="0"/>
        <request index="3" response="0000" foes="0000" cont="0"/>
    </junction>
    <junction id="gneJ3" type="dead_end" x="200.00" y="-200.00" incLanes="gneE2_0 gneE2_1 gneE2_2" intLanes="" shape="200.00,-209.60 200.00,-200.00"/>
    <junction id="gneJ4" type="dead_end" x="-1100.00" y="-400.00" incLanes="" intLanes="" shape="-1100.00,-400.00 -1098.22,-402.66"/>
    <junction id="gneJ5" type="dead_end" x="200.00" y="-400.00" incLanes="gneE4_0" intLanes="" shape="198.22,-402.66 200.00,-400.00"/>

    <connection from="gneE0" to="gneE1" fromLane="0" toLane="0" via=":gneJ1_1_0" dir="s" state="M"/>
    <connection from="gneE0" to="gneE1" fromLane="1" toLane="1" via=":gneJ1_1_1" dir="s" state="M"/>
    <connection from="gneE0" to="gneE1" fromLane="2" toLane="2" via=":gneJ1_1_2" dir="s" state="M"/>
    <connection from="gneE1" to="gneE4" fromLane="0" toLane="0" via=":gneJ2_0_0" dir="R" state="M"/>
    <connection from="gneE1" to="gneE2" fromLane="0" toLane="0" via=":gneJ2_1_0" dir="s" state="M"/>
    <connection from="gneE1" to="gneE2" fromLane="1" toLane="1" via=":gneJ2_1_1" dir="s" state="M"/>
    <connection from="gneE1" to="gneE2" fromLane="2" toLane="2" via=":gneJ2_1_2" dir="s" state="M"/>
    <connection from="gneE3" to="gneE1" fromLane="0" toLane="0" via=":gneJ1_0_0" dir="s" state="m"/>

    <connection from=":gneJ1_0" to="gneE1" fromLane="0" toLane="0" dir="s" state="M"/>
    <connection from=":gneJ1_1" to="gneE1" fromLane="0" toLane="0" dir="s" state="M"/>
    <connection from=":gneJ1_1" to="gneE1" fromLane="1" toLane="1" dir="s" state="M"/>
    <connection from=":gneJ1_1" to="gneE1" fromLane="2" toLane="2" dir="s" state="M"/>
    <connection from=":gneJ2_0" to="gneE4" fromLane="0" toLane="0" dir="R" state="M"/>
    <connection from=":gneJ2_1" to="gneE2" fromLane="0" toLane="0" dir="s" state="M"/>
    <connection from=":gneJ2_1" to="gneE2" fromLane="1" toLane="1" dir="s" state="M"/>
    <connection from=":gneJ2_1" to="gneE2" fromLane="2" toLane="2" dir="s" state="M"/>

</net>
