<?xml version="1.0" encoding="UTF-8"?>

<!-- generated on 2021-10-09 22:41:47 by Eclipse SUMO GUI Version 1.10.0
-->

<configuration xmlns:xsi="http://www.w3.org/2001/XMLSchema-instance" xsi:noNamespaceSchemaLocation="http://sumo.dlr.de/xsd/sumoConfiguration.xsd">

    <input>
        <net-file value="lane_change_3.net.xml"/>
        <route-files value="lane_change_3.rou.xml"/>
    </input>

</configuration>
