<?xml version="1.0" encoding="UTF-8"?>

<!-- generated on 2021-10-16 22:53:56 by Eclipse SUMO netedit Version 1.10.0
<configuration xmlns:xsi="http://www.w3.org/2001/XMLSchema-instance" xsi:noNamespaceSchemaLocation="http://sumo.dlr.de/xsd/netconvertConfiguration.xsd">

    <input>
        <sumo-net-file value="C:\Users\ASUS\PycharmProjects\finalProject\data\lane_change_3.net.xml"/>
    </input>

    <output>
        <output-file value="C:\Users\ASUS\PycharmProjects\finalProject\data\lane_change_3.net.xml"/>
    </output>

    <processing>
        <geometry.min-radius.fix.railways value="false"/>
        <geometry.max-grade.fix value="false"/>
        <offset.disable-normalization value="true"/>
        <lefthand value="false"/>
    </processing>

    <junctions>
        <no-turnarounds value="true"/>
        <junctions.corner-detail value="5"/>
        <junctions.limit-turn-speed value="5.5"/>
        <rectangular-lane-cut value="false"/>
    </junctions>

    <pedestrian>
        <walkingareas value="false"/>
    </pedestrian>

    <netedit>
        <route-files value="C:\Users\ASUS\PycharmProjects\finalProject\data\lane_change_3.rou.xml"/>
    </netedit>

    <report>
        <aggregate-warnings value="5"/>
    </report>

</configuration>
-->

<routes xmlns:xsi="http://www.w3.org/2001/XMLSchema-instance" xsi:noNamespaceSchemaLocation="http://sumo.dlr.de/xsd/routes_file.xsd">
    <route edges="gneE0 gneE1 gneE2" color="yellow" id="route_0"/>
    <route edges="gneE3 gneE1 gneE2" color="yellow" id="route_1"/>
    <route edges="gneE3 gneE1 gneE4" color="yellow" id="route_2"/>
    <route edges="gneE0 gneE1 gneE4" color="yellow" id="route_3"/>
    <vehicle id="vehicle_60" depart="0.00" departLane="random" route="route_3"/>
    <vehicle id="vehicle_799" depart="0.00" departLane="random" route="route_1"/>
    <vehicle id="vehicle_520" depart="1.00" departLane="random" route="route_0"/>
    <vehicle id="vehicle_589" depart="2.00" departLane="random" route="route_1"/>
    <vehicle id="vehicle_636" depart="3.00" departLane="random" route="route_1"/>
    <vehicle id="vehicle_224" depart="4.00" departLane="random" route="route_3"/>
    <vehicle id="vehicle_495" depart="4.00" departLane="random" route="route_3"/>
    <vehicle id="vehicle_603" depart="5.00" departLane="random" route="route_1"/>
    <vehicle id="vehicle_414" depart="6.00" departLane="random" route="route_3"/>
    <vehicle id="vehicle_7" depart="6.00" departLane="random" route="route_2"/>
    <vehicle id="vehicle_791" depart="10.00" departLane="random" route="route_1"/>
    <vehicle id="vehicle_814" depart="10.00" departLane="random" route="route_1"/>
    <vehicle id="vehicle_840" depart="11.00" departLane="random" route="route_0"/>
    <vehicle id="vehicle_144" depart="12.00" departLane="random" route="route_2"/>
    <vehicle id="vehicle_192" depart="12.00" departLane="random" route="route_2"/>
    <vehicle id="vehicle_507" depart="12.00" departLane="random" route="route_1"/>
    <vehicle id="vehicle_598" depart="13.00" departLane="random" route="route_0"/>
    <vehicle id="vehicle_183" depart="14.00" departLane="random" route="route_3"/>
    <vehicle id="vehicle_381" depart="15.00" departLane="random" route="route_3"/>
    <vehicle id="vehicle_108" depart="16.00" departLane="random" route="route_2"/>
    <vehicle id="vehicle_776" depart="18.00" departLane="random" route="route_1"/>
    <vehicle id="vehicle_698" depart="20.00" departLane="random" route="route_0"/>
    <vehicle id="vehicle_51" depart="22.00" departLane="random" route="route_2"/>
    <vehicle id="vehicle_478" depart="24.00" departLane="random" route="route_3"/>
    <vehicle id="vehicle_545" depart="25.00" departLane="random" route="route_0"/>
    <vehicle id="vehicle_879" depart="25.00" departLane="random" route="route_0"/>
    <vehicle id="vehicle_261" depart="27.00" departLane="random" route="route_3"/>
    <vehicle id="vehicle_839" depart="27.00" departLane="random" route="route_0"/>
    <vehicle id="vehicle_535" depart="28.00" departLane="random" route="route_0"/>
    <vehicle id="vehicle_671" depart="28.00" departLane="random" route="route_1"/>
    <vehicle id="vehicle_811" depart="28.00" departLane="random" route="route_1"/>
    <vehicle id="vehicle_378" depart="32.00" departLane="random" route="route_3"/>
    <vehicle id="vehicle_440" depart="32.00" departLane="random" route="route_3"/>
    <vehicle id="vehicle_746" depart="32.00" departLane="random" route="route_0"/>
    <vehicle id="vehicle_726" depart="33.00" departLane="random" route="route_1"/>
    <vehicle id="vehicle_461" depart="35.00" departLane="random" route="route_3"/>
    <vehicle id="vehicle_955" depart="35.00" departLane="random" route="route_0"/>
    <vehicle id="vehicle_977" depart="35.00" departLane="random" route="route_0"/>
    <vehicle id="vehicle_871" depart="36.00" departLane="random" route="route_1"/>
    <vehicle id="vehicle_949" depart="36.00" departLane="random" route="route_0"/>
    <vehicle id="vehicle_898" depart="42.00" departLane="random" route="route_1"/>
    <vehicle id="vehicle_995" depart="42.00" departLane="random" route="route_1"/>
    <vehicle id="vehicle_404" depart="45.00" departLane="random" route="route_2"/>
    <vehicle id="vehicle_521" depart="46.00" departLane="random" route="route_0"/>
    <vehicle id="vehicle_790" depart="46.00" departLane="random" route="route_0"/>
    <vehicle id="vehicle_95" depart="46.00" departLane="random" route="route_2"/>
    <vehicle id="vehicle_614" depart="47.00" departLane="random" route="route_0"/>
    <vehicle id="vehicle_640" depart="47.00" departLane="random" route="route_0"/>
    <vehicle id="vehicle_284" depart="48.00" departLane="random" route="route_2"/>
    <vehicle id="vehicle_606" depart="49.00" departLane="random" route="route_0"/>
    <vehicle id="vehicle_853" depart="50.00" departLane="random" route="route_0"/>
    <vehicle id="vehicle_149" depart="51.00" departLane="random" route="route_2"/>
    <vehicle id="vehicle_673" depart="51.00" departLane="random" route="route_1"/>
    <vehicle id="vehicle_407" depart="53.00" departLane="random" route="route_2"/>
    <vehicle id="vehicle_727" depart="53.00" departLane="random" route="route_0"/>
    <vehicle id="vehicle_434" depart="54.00" departLane="random" route="route_2"/>
    <vehicle id="vehicle_92" depart="54.00" departLane="random" route="route_2"/>
    <vehicle id="vehicle_428" depart="55.00" departLane="random" route="route_3"/>
    <vehicle id="vehicle_623" depart="56.00" departLane="random" route="route_1"/>
    <vehicle id="vehicle_227" depart="58.00" departLane="random" route="route_3"/>
    <vehicle id="vehicle_906" depart="58.00" departLane="random" route="route_0"/>
    <vehicle id="vehicle_960" depart="59.00" departLane="random" route="route_0"/>
    <vehicle id="vehicle_269" depart="60.00" departLane="random" route="route_2"/>
    <vehicle id="vehicle_27" depart="60.00" departLane="random" route="route_2"/>
    <vehicle id="vehicle_852" depart="60.00" departLane="random" route="route_1"/>
    <vehicle id="vehicle_105" depart="62.00" departLane="random" route="route_3"/>
    <vehicle id="vehicle_390" depart="62.00" departLane="random" route="route_3"/>
    <vehicle id="vehicle_48" depart="62.00" departLane="random" route="route_2"/>
    <vehicle id="vehicle_432" depart="63.00" departLane="random" route="route_2"/>
    <vehicle id="vehicle_38" depart="64.00" departLane="random" route="route_2"/>
    <vehicle id="vehicle_548" depart="64.00" departLane="random" route="route_0"/>
    <vehicle id="vehicle_647" depart="65.00" departLane="random" route="route_0"/>
    <vehicle id="vehicle_652" depart="65.00" departLane="random" route="route_0"/>
    <vehicle id="vehicle_384" depart="66.00" departLane="random" route="route_2"/>
    <vehicle id="vehicle_749" depart="66.00" departLane="random" route="route_0"/>
    <vehicle id="vehicle_484" depart="68.00" departLane="random" route="route_3"/>
    <vehicle id="vehicle_36" depart="69.00" departLane="random" route="route_3"/>
    <vehicle id="vehicle_194" depart="70.00" departLane="random" route="route_2"/>
    <vehicle id="vehicle_454" depart="70.00" departLane="random" route="route_2"/>
    <vehicle id="vehicle_368" depart="71.00" departLane="random" route="route_3"/>
    <vehicle id="vehicle_692" depart="72.00" departLane="random" route="route_1"/>
    <vehicle id="vehicle_423" depart="74.00" departLane="random" route="route_2"/>
    <vehicle id="vehicle_878" depart="75.00" departLane="random" route="route_1"/>
    <vehicle id="vehicle_280" depart="76.00" departLane="random" route="route_3"/>
    <vehicle id="vehicle_751" depart="76.00" departLane="random" route="route_1"/>
    <vehicle id="vehicle_969" depart="76.00" departLane="random" route="route_1"/>
    <vehicle id="vehicle_954" depart="77.00" departLane="random" route="route_1"/>
    <vehicle id="vehicle_360" depart="82.00" departLane="random" route="route_2"/>
    <vehicle id="vehicle_169" depart="83.00" departLane="random" route="route_2"/>
    <vehicle id="vehicle_401" depart="83.00" departLane="random" route="route_2"/>
    <vehicle id="vehicle_777" depart="83.00" departLane="random" route="route_1"/>
    <vehicle id="vehicle_826" depart="83.00" departLane="random" route="route_0"/>
    <vehicle id="vehicle_178" depart="85.00" departLane="random" route="route_2"/>
    <vehicle id="vehicle_211" depart="88.00" departLane="random" route="route_3"/>
    <vehicle id="vehicle_714" depart="88.00" departLane="random" route="route_0"/>
    <vehicle id="vehicle_649" depart="90.00" departLane="random" route="route_0"/>
    <vehicle id="vehicle_936" depart="90.00" departLane="random" route="route_0"/>
    <vehicle id="vehicle_549" depart="91.00" departLane="random" route="route_1"/>
    <vehicle id="vehicle_923" depart="95.00" departLane="random" route="route_0"/>
    <vehicle id="vehicle_620" depart="96.00" departLane="random" route="route_1"/>
    <vehicle id="vehicle_681" depart="96.00" departLane="random" route="route_0"/>
    <vehicle id="vehicle_106" depart="97.00" departLane="random" route="route_3"/>
    <vehicle id="vehicle_387" depart="97.00" departLane="random" route="route_3"/>
    <vehicle id="vehicle_11" depart="98.00" departLane="random" route="route_3"/>
    <vehicle id="vehicle_813" depart="98.00" departLane="random" route="route_0"/>
    <vehicle id="vehicle_966" depart="99.00" departLane="random" route="route_1"/>
    <vehicle id="vehicle_152" depart="101.00" departLane="random" route="route_2"/>
    <vehicle id="vehicle_735" depart="101.00" departLane="random" route="route_1"/>
    <vehicle id="vehicle_225" depart="103.00" departLane="random" route="route_3"/>
    <vehicle id="vehicle_918" depart="103.00" departLane="random" route="route_0"/>
    <vehicle id="vehicle_310" depart="105.00" departLane="random" route="route_2"/>
    <vehicle id="vehicle_417" depart="106.00" departLane="random" route="route_3"/>
    <vehicle id="vehicle_584" depart="106.00" departLane="random" route="route_0"/>
    <vehicle id="vehicle_978" depart="106.00" departLane="random" route="route_0"/>
    <vehicle id="vehicle_582" depart="107.00" departLane="random" route="route_0"/>
    <vehicle id="vehicle_576" depart="108.00" departLane="random" route="route_0"/>
    <vehicle id="vehicle_263" depart="109.00" departLane="random" route="route_2"/>
    <vehicle id="vehicle_904" depart="109.00" departLane="random" route="route_0"/>
    <vehicle id="vehicle_184" depart="111.00" departLane="random" route="route_2"/>
    <vehicle id="vehicle_566" depart="111.00" departLane="random" route="route_1"/>
    <vehicle id="vehicle_650" depart="111.00" departLane="random" route="route_1"/>
    <vehicle id="vehicle_655" depart="111.00" departLane="random" route="route_0"/>
    <vehicle id="vehicle_171" depart="114.00" departLane="random" route="route_2"/>
    <vehicle id="vehicle_338" depart="114.00" departLane="random" route="route_2"/>
    <vehicle id="vehicle_731" depart="114.00" departLane="random" route="route_0"/>
    <vehicle id="vehicle_983" depart="115.00" departLane="random" route="route_0"/>
    <vehicle id="vehicle_122" depart="117.00" departLane="random" route="route_3"/>
    <vehicle id="vehicle_24" depart="117.00" departLane="random" route="route_2"/>
    <vehicle id="vehicle_855" depart="120.00" departLane="random" route="route_1"/>
    <vehicle id="vehicle_31" depart="121.00" departLane="random" route="route_2"/>
    <vehicle id="vehicle_596" depart="121.00" departLane="random" route="route_1"/>
    <vehicle id="vehicle_787" depart="123.00" departLane="random" route="route_0"/>
    <vehicle id="vehicle_228" depart="125.00" departLane="random" route="route_3"/>
    <vehicle id="vehicle_305" depart="127.00" departLane="random" route="route_3"/>
    <vehicle id="vehicle_581" depart="128.00" departLane="random" route="route_1"/>
    <vehicle id="vehicle_142" depart="130.00" departLane="random" route="route_3"/>
    <vehicle id="vehicle_846" depart="132.00" departLane="random" route="route_1"/>
    <vehicle id="vehicle_755" depart="133.00" departLane="random" route="route_1"/>
    <vehicle id="vehicle_771" depart="133.00" departLane="random" route="route_0"/>
    <vehicle id="vehicle_179" depart="134.00" departLane="random" route="route_2"/>
    <vehicle id="vehicle_232" depart="134.00" departLane="random" route="route_3"/>
    <vehicle id="vehicle_316" depart="134.00" departLane="random" route="route_2"/>
    <vehicle id="vehicle_455" depart="134.00" departLane="random" route="route_2"/>
    <vehicle id="vehicle_315" depart="135.00" departLane="random" route="route_2"/>
    <vehicle id="vehicle_659" depart="136.00" departLane="random" route="route_0"/>
    <vehicle id="vehicle_905" depart="136.00" departLane="random" route="route_0"/>
    <vehicle id="vehicle_253" depart="138.00" departLane="random" route="route_2"/>
    <vehicle id="vehicle_351" depart="140.00" departLane="random" route="route_3"/>
    <vehicle id="vehicle_670" depart="140.00" departLane="random" route="route_1"/>
    <vehicle id="vehicle_831" depart="140.00" departLane="random" route="route_0"/>
    <vehicle id="vehicle_463" depart="141.00" departLane="random" route="route_2"/>
    <vehicle id="vehicle_391" depart="143.00" departLane="random" route="route_2"/>
    <vehicle id="vehicle_46" depart="143.00" departLane="random" route="route_2"/>
    <vehicle id="vehicle_580" depart="146.00" departLane="random" route="route_1"/>
    <vehicle id="vehicle_276" depart="147.00" departLane="random" route="route_3"/>
    <vehicle id="vehicle_64" depart="147.00" departLane="random" route="route_3"/>
    <vehicle id="vehicle_10" depart="149.00" departLane="random" route="route_3"/>
    <vehicle id="vehicle_929" depart="149.00" departLane="random" route="route_1"/>
    <vehicle id="vehicle_271" depart="150.00" departLane="random" route="route_3"/>
    <vehicle id="vehicle_605" depart="151.00" departLane="random" route="route_0"/>
    <vehicle id="vehicle_295" depart="152.00" departLane="random" route="route_3"/>
    <vehicle id="vehicle_458" depart="152.00" departLane="random" route="route_3"/>
    <vehicle id="vehicle_880" depart="152.00" departLane="random" route="route_0"/>
    <vehicle id="vehicle_202" depart="153.00" departLane="random" route="route_2"/>
    <vehicle id="vehicle_483" depart="153.00" departLane="random" route="route_2"/>
    <vehicle id="vehicle_73" depart="153.00" departLane="random" route="route_2"/>
    <vehicle id="vehicle_891" depart="153.00" departLane="random" route="route_1"/>
    <vehicle id="vehicle_913" depart="153.00" departLane="random" route="route_0"/>
    <vehicle id="vehicle_739" depart="155.00" departLane="random" route="route_0"/>
    <vehicle id="vehicle_121" depart="157.00" departLane="random" route="route_2"/>
    <vehicle id="vehicle_172" depart="161.00" departLane="random" route="route_3"/>
    <vehicle id="vehicle_508" depart="161.00" departLane="random" route="route_0"/>
    <vehicle id="vehicle_935" depart="162.00" departLane="random" route="route_0"/>
    <vehicle id="vehicle_115" depart="164.00" departLane="random" route="route_3"/>
    <vehicle id="vehicle_297" depart="166.00" departLane="random" route="route_2"/>
    <vehicle id="vehicle_125" depart="168.00" departLane="random" route="route_3"/>
    <vehicle id="vehicle_16" depart="171.00" departLane="random" route="route_3"/>
    <vehicle id="vehicle_290" depart="171.00" departLane="random" route="route_2"/>
    <vehicle id="vehicle_75" depart="171.00" departLane="random" route="route_3"/>
    <vehicle id="vehicle_235" depart="175.00" departLane="random" route="route_3"/>
    <vehicle id="vehicle_355" depart="175.00" departLane="random" route="route_2"/>
    <vehicle id="vehicle_332" depart="179.00" departLane="random" route="route_2"/>
    <vehicle id="vehicle_555" depart="179.00" departLane="random" route="route_1"/>
    <vehicle id="vehicle_610" depart="180.00" departLane="random" route="route_1"/>
    <vehicle id="vehicle_780" depart="180.00" departLane="random" route="route_1"/>
    <vehicle id="vehicle_678" depart="182.00" departLane="random" route="route_0"/>
    <vehicle id="vehicle_319" depart="183.00" departLane="random" route="route_2"/>
    <vehicle id="vehicle_925" depart="183.00" departLane="random" route="route_1"/>
    <vehicle id="vehicle_195" depart="184.00" departLane="random" route="route_3"/>
    <vehicle id="vehicle_539" depart="184.00" departLane="random" route="route_1"/>
    <vehicle id="vehicle_65" depart="184.00" departLane="random" route="route_3"/>
    <vehicle id="vehicle_668" depart="184.00" departLane="random" route="route_1"/>
    <vehicle id="vehicle_243" depart="185.00" departLane="random" route="route_2"/>
    <vehicle id="vehicle_88" depart="185.00" departLane="random" route="route_3"/>
    <vehicle id="vehicle_551" depart="186.00" departLane="random" route="route_1"/>
    <vehicle id="vehicle_805" depart="188.00" departLane="random" route="route_1"/>
    <vehicle id="vehicle_522" depart="189.00" departLane="random" route="route_0"/>
    <vehicle id="vehicle_803" depart="190.00" departLane="random" route="route_1"/>
    <vehicle id="vehicle_273" depart="192.00" departLane="random" route="route_2"/>
    <vehicle id="vehicle_28" depart="193.00" departLane="random" route="route_2"/>
    <vehicle id="vehicle_313" depart="193.00" departLane="random" route="route_3"/>
    <vehicle id="vehicle_42" depart="194.00" departLane="random" route="route_2"/>
    <vehicle id="vehicle_94" depart="194.00" departLane="random" route="route_2"/>
    <vehicle id="vehicle_708" depart="195.00" departLane="random" route="route_1"/>
    <vehicle id="vehicle_175" depart="197.00" departLane="random" route="route_2"/>
    <vehicle id="vehicle_691" depart="197.00" departLane="random" route="route_0"/>
    <vehicle id="vehicle_435" depart="198.00" departLane="random" route="route_3"/>
    <vehicle id="vehicle_556" depart="198.00" departLane="random" route="route_0"/>
    <vehicle id="vehicle_644" depart="198.00" departLane="random" route="route_1"/>
    <vehicle id="vehicle_945" depart="198.00" departLane="random" route="route_0"/>
    <vehicle id="vehicle_361" depart="199.00" departLane="random" route="route_2"/>
    <vehicle id="vehicle_67" depart="199.00" departLane="random" route="route_2"/>
    <vehicle id="vehicle_199" depart="200.00" departLane="random" route="route_3"/>
    <vehicle id="vehicle_452" depart="201.00" departLane="random" route="route_2"/>
    <vehicle id="vehicle_709" depart="201.00" departLane="random" route="route_1"/>
    <vehicle id="vehicle_130" depart="203.00" departLane="random" route="route_2"/>
    <vehicle id="vehicle_329" depart="203.00" departLane="random" route="route_2"/>
    <vehicle id="vehicle_396" depart="204.00" departLane="random" route="route_2"/>
    <vehicle id="vehicle_740" depart="205.00" departLane="random" route="route_1"/>
    <vehicle id="vehicle_717" depart="206.00" departLane="random" route="route_1"/>
    <vehicle id="vehicle_970" depart="206.00" departLane="random" route="route_0"/>
    <vehicle id="vehicle_406" depart="207.00" departLane="random" route="route_2"/>
    <vehicle id="vehicle_900" depart="207.00" departLane="random" route="route_0"/>
    <vehicle id="vehicle_645" depart="208.00" departLane="random" route="route_0"/>
    <vehicle id="vehicle_656" depart="208.00" departLane="random" route="route_0"/>
    <vehicle id="vehicle_388" depart="210.00" departLane="random" route="route_3"/>
    <vehicle id="vehicle_527" depart="210.00" departLane="random" route="route_0"/>
    <vehicle id="vehicle_109" depart="211.00" departLane="random" route="route_2"/>
    <vehicle id="vehicle_938" depart="212.00" departLane="random" route="route_0"/>
    <vehicle id="vehicle_369" depart="213.00" departLane="random" route="route_2"/>
    <vehicle id="vehicle_963" depart="213.00" departLane="random" route="route_1"/>
    <vehicle id="vehicle_40" depart="214.00" departLane="random" route="route_2"/>
    <vehicle id="vehicle_77" depart="216.00" departLane="random" route="route_3"/>
    <vehicle id="vehicle_264" depart="217.00" departLane="random" route="route_3"/>
    <vehicle id="vehicle_542" depart="217.00" departLane="random" route="route_1"/>
    <vehicle id="vehicle_413" depart="218.00" departLane="random" route="route_2"/>
    <vehicle id="vehicle_876" depart="218.00" departLane="random" route="route_0"/>
    <vehicle id="vehicle_827" depart="219.00" departLane="random" route="route_1"/>
    <vehicle id="vehicle_446" depart="222.00" departLane="random" route="route_3"/>
    <vehicle id="vehicle_206" depart="223.00" departLane="random" route="route_2"/>
    <vehicle id="vehicle_331" depart="223.00" departLane="random" route="route_2"/>
    <vehicle id="vehicle_74" depart="225.00" departLane="random" route="route_3"/>
    <vehicle id="vehicle_177" depart="227.00" departLane="random" route="route_2"/>
    <vehicle id="vehicle_957" depart="228.00" departLane="random" route="route_1"/>
    <vehicle id="vehicle_221" depart="229.00" departLane="random" route="route_2"/>
    <vehicle id="vehicle_961" depart="229.00" departLane="random" route="route_1"/>
    <vehicle id="vehicle_373" depart="230.00" departLane="random" route="route_3"/>
    <vehicle id="vehicle_255" depart="232.00" departLane="random" route="route_3"/>
    <vehicle id="vehicle_648" depart="232.00" departLane="random" route="route_1"/>
    <vehicle id="vehicle_323" depart="233.00" departLane="random" route="route_2"/>
    <vehicle id="vehicle_832" depart="233.00" departLane="random" route="route_0"/>
    <vehicle id="vehicle_641" depart="234.00" departLane="random" route="route_1"/>
    <vehicle id="vehicle_720" depart="234.00" departLane="random" route="route_1"/>
    <vehicle id="vehicle_916" depart="234.00" departLane="random" route="route_0"/>
    <vehicle id="vehicle_385" depart="236.00" departLane="random" route="route_2"/>
    <vehicle id="vehicle_415" depart="236.00" departLane="random" route="route_3"/>
    <vehicle id="vehicle_742" depart="236.00" departLane="random" route="route_0"/>
    <vehicle id="vehicle_114" depart="237.00" departLane="random" route="route_2"/>
    <vehicle id="vehicle_205" depart="237.00" departLane="random" route="route_3"/>
    <vehicle id="vehicle_443" depart="237.00" departLane="random" route="route_2"/>
    <vehicle id="vehicle_833" depart="237.00" departLane="random" route="route_0"/>
    <vehicle id="vehicle_877" depart="238.00" departLane="random" route="route_1"/>
    <vehicle id="vehicle_219" depart="239.00" departLane="random" route="route_3"/>
    <vehicle id="vehicle_35" depart="242.00" departLane="random" route="route_2"/>
    <vehicle id="vehicle_298" depart="243.00" departLane="random" route="route_3"/>
    <vehicle id="vehicle_321" depart="243.00" departLane="random" route="route_2"/>
    <vehicle id="vehicle_450" depart="244.00" departLane="random" route="route_3"/>
    <vehicle id="vehicle_494" depart="244.00" departLane="random" route="route_2"/>
    <vehicle id="vehicle_107" depart="246.00" departLane="random" route="route_2"/>
    <vehicle id="vehicle_188" depart="246.00" departLane="random" route="route_3"/>
    <vehicle id="vehicle_532" depart="246.00" departLane="random" route="route_1"/>
    <vehicle id="vehicle_597" depart="246.00" departLane="random" route="route_1"/>
    <vehicle id="vehicle_524" depart="247.00" departLane="random" route="route_0"/>
    <vehicle id="vehicle_716" depart="248.00" departLane="random" route="route_0"/>
    <vehicle id="vehicle_519" depart="249.00" departLane="random" route="route_1"/>
    <vehicle id="vehicle_309" depart="251.00" departLane="random" route="route_2"/>
    <vehicle id="vehicle_18" depart="253.00" departLane="random" route="route_2"/>
    <vehicle id="vehicle_289" depart="254.00" departLane="random" route="route_3"/>
    <vehicle id="vehicle_540" depart="254.00" departLane="random" route="route_0"/>
    <vehicle id="vehicle_611" depart="254.00" departLane="random" route="route_1"/>
    <vehicle id="vehicle_282" depart="255.00" departLane="random" route="route_2"/>
    <vehicle id="vehicle_218" depart="256.00" departLane="random" route="route_2"/>
    <vehicle id="vehicle_675" depart="258.00" departLane="random" route="route_1"/>
    <vehicle id="vehicle_823" depart="259.00" departLane="random" route="route_1"/>
    <vehicle id="vehicle_941" depart="259.00" departLane="random" route="route_0"/>
    <vehicle id="vehicle_689" depart="262.00" departLane="random" route="route_0"/>
    <vehicle id="vehicle_459" depart="264.00" departLane="random" route="route_2"/>
    <vehicle id="vehicle_710" depart="264.00" departLane="random" route="route_0"/>
    <vehicle id="vehicle_222" depart="265.00" departLane="random" route="route_2"/>
    <vehicle id="vehicle_911" depart="265.00" departLane="random" route="route_1"/>
    <vehicle id="vehicle_97" depart="266.00" departLane="random" route="route_2"/>
    <vehicle id="vehicle_444" depart="267.00" departLane="random" route="route_2"/>
    <vehicle id="vehicle_882" depart="268.00" departLane="random" route="route_1"/>
    <vehicle id="vehicle_61" depart="270.00" departLane="random" route="route_3"/>
    <vehicle id="vehicle_860" depart="270.00" departLane="random" route="route_0"/>
    <vehicle id="vehicle_299" depart="271.00" departLane="random" route="route_2"/>
    <vehicle id="vehicle_704" depart="271.00" departLane="random" route="route_0"/>
    <vehicle id="vehicle_981" depart="271.00" departLane="random" route="route_1"/>
    <vehicle id="vehicle_389" depart="272.00" departLane="random" route="route_3"/>
    <vehicle id="vehicle_151" depart="273.00" departLane="random" route="route_3"/>
    <vehicle id="vehicle_212" depart="273.00" departLane="random" route="route_2"/>
    <vehicle id="vehicle_773" depart="274.00" departLane="random" route="route_1"/>
    <vehicle id="vehicle_89" depart="274.00" departLane="random" route="route_2"/>
    <vehicle id="vehicle_987" depart="277.00" departLane="random" route="route_0"/>
    <vehicle id="vehicle_534" depart="278.00" departLane="random" route="route_1"/>
    <vehicle id="vehicle_558" depart="278.00" departLane="random" route="route_1"/>
    <vehicle id="vehicle_637" depart="278.00" departLane="random" route="route_1"/>
    <vehicle id="vehicle_712" depart="280.00" departLane="random" route="route_1"/>
    <vehicle id="vehicle_870" depart="280.00" departLane="random" route="route_0"/>
    <vehicle id="vehicle_425" depart="281.00" departLane="random" route="route_2"/>
    <vehicle id="vehicle_718" depart="281.00" departLane="random" route="route_1"/>
    <vehicle id="vehicle_377" depart="282.00" departLane="random" route="route_2"/>
    <vehicle id="vehicle_489" depart="282.00" departLane="random" route="route_3"/>
    <vehicle id="vehicle_393" depart="283.00" departLane="random" route="route_3"/>
    <vehicle id="vehicle_163" depart="284.00" departLane="random" route="route_3"/>
    <vehicle id="vehicle_618" depart="285.00" departLane="random" route="route_1"/>
    <vehicle id="vehicle_170" depart="290.00" departLane="random" route="route_2"/>
    <vehicle id="vehicle_869" depart="290.00" departLane="random" route="route_1"/>
    <vehicle id="vehicle_277" depart="291.00" departLane="random" route="route_2"/>
    <vehicle id="vehicle_516" depart="291.00" departLane="random" route="route_1"/>
    <vehicle id="vehicle_2" depart="293.00" departLane="random" route="route_2"/>
    <vehicle id="vehicle_854" depart="293.00" departLane="random" route="route_1"/>
    <vehicle id="vehicle_155" depart="294.00" departLane="random" route="route_3"/>
    <vehicle id="vehicle_260" depart="294.00" departLane="random" route="route_2"/>
    <vehicle id="vehicle_39" depart="294.00" departLane="random" route="route_2"/>
    <vehicle id="vehicle_133" depart="296.00" departLane="random" route="route_2"/>
    <vehicle id="vehicle_303" depart="296.00" departLane="random" route="route_3"/>
    <vehicle id="vehicle_873" depart="296.00" departLane="random" route="route_1"/>
    <vehicle id="vehicle_136" depart="298.00" departLane="random" route="route_3"/>
    <vehicle id="vehicle_383" depart="298.00" departLane="random" route="route_2"/>
    <vehicle id="vehicle_457" depart="299.00" departLane="random" route="route_3"/>
    <vehicle id="vehicle_126" depart="301.00" departLane="random" route="route_2"/>
    <vehicle id="vehicle_531" depart="301.00" departLane="random" route="route_0"/>
    <vehicle id="vehicle_56" depart="301.00" departLane="random" route="route_2"/>
    <vehicle id="vehicle_471" depart="302.00" departLane="random" route="route_2"/>
    <vehicle id="vehicle_662" depart="302.00" departLane="random" route="route_1"/>
    <vehicle id="vehicle_358" depart="304.00" departLane="random" route="route_3"/>
    <vehicle id="vehicle_607" depart="304.00" departLane="random" route="route_0"/>
    <vehicle id="vehicle_881" depart="304.00" departLane="random" route="route_0"/>